cse-lib/network-processing/src/test/resources/com/farao_community/farao/cse/network_processing/busbar_change/BaseNetwork.uct
##C 2007.05.01
Generated by powsybl, 2021-09-27T16:38:19.053+02:00
Case date: 2021-09-27T16:38:18.247+02:00
##N
##ZBE
BBE1AA11 BE1          0 2 400.00 2500.00 0.00000 -1500.0 0.00000 9000.00 -9000.0 9000.00 -9000.0                               F
BBE2AA1  BE2          0 2 400.00 1000.00 0.00000 -3000.0 0.00000 9000.00 -9000.0 9000.00 -9000.0                               F
BBE3AA1  BE3          0 2 400.00 1500.00 0.00000 -2500.0 0.00000 9000.00 -9000.0 9000.00 -9000.0                               F
##ZDE
DDE1AA11 DE1          0 2 400.00 3500.00 0.00000 -2500.0 0.00000 9000.00 -9000.0 9000.00 -9000.0                               F
DDE1AA12 DE1          0 2 400.00 0.00000 0.00000 0.00000 0.00000 9000.00 -9000.0 9000.00 -9000.0                               F
DDE2AA1  DE2          0 2 400.00 3000.00 0.00000 -2000.0 0.00000 9000.00 -9000.0 9000.00 -9000.0                               F
DDE3AA1  DE3          0 2 400.00 2000.00 0.00000 -1500.0 0.00000 9000.00 -9000.0 9000.00 -9000.0                               F
##ZFR
FFR1AA1  FR1          0 2 400.00 1000.00 0.00000 -2000.0 0.00000 9000.00 -9000.0 9000.00 -9000.0                               F
FFR2AA1  FR2          0 2 400.00 3500.00 0.00000 -2000.0 0.00000 9000.00 -9000.0 9000.00 -9000.0                               F
FFR3AA1  FR3          0 2 400.00 1500.00 0.00000 -3000.0 0.00000 9000.00 -9000.0 9000.00 -9000.0                               F
##ZNL
NNL1AA1  NL1          0 2 400.00 1000.00 0.00000 -1500.0 0.00000 9000.00 -9000.0 9000.00 -9000.0                               F
NNL2AA1  NL2          0 2 400.00 1000.00 0.00000 -500.00 0.00000 9000.00 -9000.0 9000.00 -9000.0                               F
NNL3AA1  NL3          0 2 400.00 2500.00 0.00000 -2000.0 0.00000 9000.00 -9000.0 9000.00 -9000.0                               F
##L
BBE1AA11 BBE2AA1  1 0 0.0000 10.000 0.000000   5000
BBE1AA11 BBE3AA1  1 0 0.0000 10.000 0.000000   5000
BBE1AA11 DDE1AA11 1 0 0.0000 10.000 0.000000   5000
BBE2AA1  FFR3AA1  1 0 0.0000 10.000 0.000000   5000
DDE1AA12 DDE2AA1  1 0 0.0000 10.000 0.000000   5000
DDE1AA12 DDE3AA1  1 0 0.0000 10.000 0.000000   5000
DDE2AA1  DDE3AA1  1 0 0.0000 10.000 0.000000   5000
DDE2AA1  NNL3AA1  1 0 0.0000 10.000 0.000000   5000
FFR1AA1  BBE1AA11 1 0 0.0000 10.000 0.000000   5000
FFR1AA1  FFR2AA1  1 0 0.0000 10.000 0.000000   5000
FFR1AA1  FFR3AA1  1 0 0.0000 10.000 0.000000   5000
FFR2AA1  DDE3AA1  1 0 0.0000 10.000 0.000000   5000
FFR2AA1  FFR3AA1  1 0 0.0000 10.000 0.000000   5000
NNL1AA1  NNL2AA1  1 0 0.0000 10.000 0.000000   5000
NNL1AA1  NNL3AA1  1 0 0.0000 10.000 0.000000   5000
NNL2AA1  BBE3AA1  1 0 0.0000 10.000 0.000000   5000
NNL2AA1  NNL3AA1  1 0 0.0000 10.000 0.000000   5000
##T
BBE2AA1  BBE3AA1  1 0 400.0 400.0 1000. 0.0000 10.000 0.000000 0.0000   5000 PST
##R
BBE2AA1  BBE3AA1  1                    0.680 90.00 16   0       SYMM
